Version 4
SHEET 1 1308 900
WIRE -32 -240 -64 -240
WIRE 96 -240 48 -240
WIRE 176 -240 96 -240
WIRE 304 -240 256 -240
WIRE -64 -208 -64 -240
WIRE 208 -176 208 -192
WIRE 208 -144 208 -176
WIRE 96 -128 96 -240
WIRE 176 -128 96 -128
WIRE 304 -112 304 -240
WIRE 304 -112 240 -112
WIRE 176 -96 144 -96
WIRE 208 -48 208 -80
WIRE 208 -32 208 -48
WIRE -32 64 -64 64
WIRE 144 64 144 -96
WIRE 144 64 48 64
WIRE 176 64 144 64
WIRE 304 64 256 64
WIRE -64 96 -64 64
WIRE 160 128 160 112
WIRE 160 160 160 128
WIRE 96 176 96 -128
WIRE 128 176 96 176
WIRE 304 192 304 64
WIRE 304 192 192 192
WIRE 352 192 304 192
WIRE 128 208 0 208
WIRE 0 240 0 208
WIRE 160 256 160 224
WIRE 160 272 160 256
WIRE 304 272 304 256
WIRE 368 272 368 256
WIRE 304 320 304 272
WIRE 368 320 368 272
WIRE 0 368 0 320
WIRE 304 416 304 400
WIRE 368 416 368 400
WIRE 480 560 448 560
WIRE 608 560 560 560
WIRE 688 560 608 560
WIRE 816 560 768 560
WIRE -480 576 -512 576
WIRE -352 576 -400 576
WIRE -272 576 -352 576
WIRE -144 576 -192 576
WIRE 64 576 32 576
WIRE 192 576 144 576
WIRE 272 576 192 576
WIRE 400 576 352 576
WIRE 448 592 448 560
WIRE -512 608 -512 576
WIRE 32 608 32 576
WIRE 720 624 720 608
WIRE -240 640 -240 624
WIRE 304 640 304 624
WIRE 720 656 720 624
WIRE -240 672 -240 640
WIRE 304 672 304 640
WIRE 608 672 608 560
WIRE 688 672 608 672
WIRE -352 688 -352 576
WIRE -272 688 -352 688
WIRE 192 688 192 576
WIRE 272 688 192 688
WIRE 816 688 816 560
WIRE 816 688 752 688
WIRE 880 688 816 688
WIRE -144 704 -144 576
WIRE -144 704 -208 704
WIRE -96 704 -144 704
WIRE 400 704 400 576
WIRE 400 704 336 704
WIRE 688 704 400 704
WIRE -272 720 -448 720
WIRE 272 720 96 720
WIRE -448 752 -448 720
WIRE 96 752 96 720
WIRE 720 752 720 720
WIRE -240 768 -240 736
WIRE 304 768 304 736
WIRE 720 768 720 752
WIRE -240 784 -240 768
WIRE 304 784 304 768
WIRE -448 880 -448 832
WIRE 96 880 96 832
FLAG 0 368 0
FLAG 352 192 VOUT
IOPIN 352 192 Out
FLAG 304 416 0
FLAG 368 416 0
FLAG 304 272 VEE
FLAG 160 128 VCC
FLAG 160 256 VEE
FLAG -64 96 0
FLAG 208 -176 VCC
FLAG 208 -48 VEE
FLAG -64 -208 0
FLAG 368 272 VCC
FLAG -240 640 VCC
FLAG -240 768 VEE
FLAG -512 608 0
FLAG -96 704 VO-S
IOPIN -96 704 Out
FLAG -448 880 0
FLAG 304 640 VCC
FLAG 304 768 VEE
FLAG 32 608 0
FLAG 880 688 VO-D
IOPIN 880 688 Out
FLAG 96 880 0
FLAG 720 624 VCC
FLAG 720 752 VEE
FLAG 448 592 0
SYMBOL voltage 0 224 R0
WINDOW 3 -87 181 Left 2
WINDOW 123 24 99 Left 2
WINDOW 39 0 0 Left 2
SYMATTR Value ""
SYMATTR Value2 AC 1
SYMATTR InstName V1
SYMBOL res 272 48 R90
WINDOW 0 0 56 VBottom 2
WINDOW 3 32 56 VTop 2
SYMATTR InstName R1
SYMATTR Value 5.1k
SYMBOL res 64 48 R90
WINDOW 0 0 56 VBottom 2
WINDOW 3 32 56 VTop 2
SYMATTR InstName RK1
SYMATTR Value 567
SYMBOL Misc\\battery 368 304 R0
WINDOW 0 9 8 Left 2
WINDOW 3 17 96 Left 2
WINDOW 123 0 0 Left 0
WINDOW 39 0 0 Left 0
SYMATTR InstName VS1
SYMATTR Value 5
SYMBOL Misc\\battery 304 416 R180
WINDOW 0 24 104 Left 2
WINDOW 3 24 16 Left 2
WINDOW 123 0 0 Left 0
WINDOW 39 0 0 Left 0
SYMATTR InstName VS2
SYMATTR Value 5
SYMBOL res 272 -256 R90
WINDOW 0 0 56 VBottom 2
WINDOW 3 32 56 VTop 2
SYMATTR InstName R2
SYMATTR Value 5.1k
SYMBOL res 64 -256 R90
WINDOW 0 0 56 VBottom 2
WINDOW 3 32 56 VTop 2
SYMATTR InstName RK2
SYMATTR Value 567
SYMBOL Opamps\\AD8066 160 128 R0
SYMATTR InstName U1
SYMBOL Opamps\\AD8066 208 -176 R0
SYMATTR InstName U2
SYMBOL res -176 560 R90
WINDOW 0 0 56 VBottom 2
WINDOW 3 32 56 VTop 2
SYMATTR InstName R4
SYMATTR Value 5.1k
SYMBOL res -384 560 R90
WINDOW 0 0 56 VBottom 2
WINDOW 3 32 56 VTop 2
SYMATTR InstName R3
SYMATTR Value 567
SYMBOL Opamps\\AD8066 -240 640 R0
SYMATTR InstName U3
SYMBOL voltage -448 736 R0
WINDOW 3 -87 181 Left 2
WINDOW 123 24 99 Left 2
WINDOW 39 0 0 Left 2
SYMATTR Value ""
SYMATTR Value2 AC 1
SYMATTR InstName V2
SYMBOL res 368 560 R90
WINDOW 0 0 56 VBottom 2
WINDOW 3 32 56 VTop 2
SYMATTR InstName R6
SYMATTR Value 5.1k
SYMBOL res 160 560 R90
WINDOW 0 0 56 VBottom 2
WINDOW 3 32 56 VTop 2
SYMATTR InstName R5
SYMATTR Value 2359
SYMBOL Opamps\\AD8066 304 640 R0
SYMATTR InstName U4
SYMBOL voltage 96 736 R0
WINDOW 3 -87 181 Left 2
WINDOW 123 24 99 Left 2
WINDOW 39 0 0 Left 2
SYMATTR Value ""
SYMATTR Value2 AC 1
SYMATTR InstName V3
SYMBOL res 784 544 R90
WINDOW 0 0 56 VBottom 2
WINDOW 3 32 56 VTop 2
SYMATTR InstName R8
SYMATTR Value 5.1k
SYMBOL res 576 544 R90
WINDOW 0 0 56 VBottom 2
WINDOW 3 32 56 VTop 2
SYMATTR InstName R7
SYMATTR Value 2359
SYMBOL Opamps\\AD8066 720 624 R0
SYMATTR InstName U5
TEXT -72 -304 Left 2 !.ac dec 200 1k 100meg
TEXT -80 -160 Left 2 ;RK2 = R2/K2
TEXT -80 0 Left 2 ;RK1 = R1/K1
