Version 4
SHEET 1 880 680
WIRE 128 64 64 64
WIRE 144 64 128 64
WIRE 352 64 288 64
WIRE 384 64 352 64
WIRE 288 96 288 64
WIRE 64 112 64 64
WIRE 64 224 64 192
WIRE 288 224 288 176
FLAG 64 224 0
FLAG 288 224 0
FLAG 352 64 VOUT
FLAG 128 64 VIN
SYMBOL voltage 64 96 R0
WINDOW 123 0 0 Left 0
WINDOW 39 0 0 Left 0
SYMATTR InstName V1
SYMATTR Value 0
SYMBOL bv 288 80 R0
WINDOW 3 -217 176 Left 2
SYMATTR Value V=10*V(VIN)+0.2*POW(V(VIN),2)-0.1*POW(V(VIN),3)
SYMATTR InstName B1
TEXT 64 0 Left 2 !.dc V1 -6 6 0.1
