Version 4
SHEET 1 1332 680
WIRE 80 64 32 64
WIRE 192 64 160 64
WIRE 288 64 192 64
WIRE 416 64 368 64
WIRE 256 96 256 80
WIRE 32 112 32 64
WIRE 256 128 256 96
WIRE 192 144 192 64
WIRE 224 144 192 144
WIRE 416 160 416 64
WIRE 416 160 288 160
WIRE 448 160 416 160
WIRE 224 176 160 176
WIRE 256 224 256 192
WIRE 160 240 160 176
WIRE 256 240 256 224
WIRE 368 240 368 224
WIRE 432 240 432 224
WIRE 368 288 368 240
WIRE 432 288 432 240
WIRE 160 368 160 320
WIRE 368 384 368 368
WIRE 432 384 432 368
FLAG 160 368 0
FLAG 448 160 VOUT
IOPIN 448 160 Out
FLAG 32 112 0
FLAG 368 384 0
FLAG 432 384 0
FLAG 368 240 VEE
FLAG 432 240 VCC
FLAG 256 96 VCC
FLAG 256 224 VEE
SYMBOL res 384 48 R90
WINDOW 0 0 56 VBottom 2
WINDOW 3 32 56 VTop 2
SYMATTR InstName R2
SYMATTR Value {RF}
SYMBOL res 176 48 R90
WINDOW 0 0 56 VBottom 2
WINDOW 3 32 56 VTop 2
SYMATTR InstName R1
SYMATTR Value {RF/9}
SYMBOL voltage 160 224 R0
WINDOW 0 31 26 Bottom 2
WINDOW 3 242 38 Top 2
WINDOW 123 35 89 Top 2
WINDOW 39 0 0 Left 0
SYMATTR InstName V1
SYMATTR Value ""
SYMATTR Value2 AC 1
SYMBOL Misc\\battery 432 272 R0
WINDOW 0 17 6 Left 2
WINDOW 3 17 95 Left 2
WINDOW 123 0 0 Left 0
WINDOW 39 0 0 Left 0
SYMATTR InstName VS1
SYMATTR Value 10
SYMBOL Misc\\battery 368 384 R180
WINDOW 0 24 104 Left 2
WINDOW 3 24 16 Left 2
WINDOW 123 0 0 Left 0
WINDOW 39 0 0 Left 0
SYMATTR InstName VS2
SYMATTR Value 10
SYMBOL Opamps\\AD811 256 96 R0
SYMATTR InstName U1
TEXT 16 8 Left 2 !.step param RF LIST  200 350 500 1k 2k
TEXT 16 -24 Left 2 !.ac dec 100 10k 1G
