Version 4
SHEET 1 1740 680
WIRE -16 -32 -32 -32
WIRE 96 -32 64 -32
WIRE 304 -32 96 -32
WIRE 544 -32 384 -32
WIRE -32 0 -32 -32
WIRE 96 16 96 -32
WIRE 96 16 16 16
WIRE 544 16 544 -32
WIRE 608 16 544 16
WIRE 128 48 128 32
WIRE 544 48 544 16
WIRE 304 64 272 64
WIRE 416 64 384 64
WIRE 448 64 416 64
WIRE 496 64 448 64
WIRE 128 96 128 48
WIRE 416 112 416 64
WIRE 496 112 464 112
WIRE 16 128 16 16
WIRE 48 128 16 128
WIRE 64 128 48 128
WIRE 272 128 272 64
WIRE 224 144 192 144
WIRE 464 144 464 112
WIRE 48 160 16 160
WIRE 64 160 48 160
WIRE 544 160 544 128
WIRE 224 192 208 192
WIRE 16 208 16 160
WIRE 416 208 416 176
WIRE 592 208 592 192
WIRE 656 208 656 192
WIRE 128 240 128 192
WIRE 208 240 208 192
WIRE 272 240 272 208
WIRE 128 256 128 240
WIRE 592 256 592 208
WIRE 656 256 656 208
WIRE 16 336 16 288
WIRE 592 352 592 336
WIRE 656 352 656 336
FLAG 16 336 0
FLAG 416 208 0
FLAG 464 144 0
FLAG 544 160 0
FLAG 608 16 VOUT
IOPIN 608 16 Out
FLAG 592 352 0
FLAG 656 352 0
FLAG 592 208 VEE
FLAG 656 208 VCC
FLAG 128 48 VCC
FLAG 128 240 VEE
FLAG -32 0 0
FLAG 448 64 VCP
FLAG 48 160 VP
FLAG 48 128 VN
FLAG 272 240 0
FLAG 208 240 0
SYMBOL voltage 16 192 R0
WINDOW 123 24 124 Left 2
WINDOW 39 0 0 Left 0
WINDOW 3 10 103 Left 2
SYMATTR Value SINE(0 5 1k)
SYMATTR InstName V1
SYMBOL res 400 48 R90
WINDOW 0 0 56 VBottom 2
WINDOW 3 32 56 VTop 2
SYMATTR InstName RP
SYMATTR Value 159k
SYMBOL cap 400 112 R0
SYMATTR InstName CP
SYMATTR Value 1µ
SYMBOL e 544 32 R0
SYMATTR InstName E2
SYMATTR Value 1
SYMBOL Misc\\battery 656 240 R0
WINDOW 0 13 6 Left 2
WINDOW 3 16 96 Left 2
SYMATTR InstName VS1
SYMATTR Value 15
SYMBOL Misc\\battery 592 352 R180
WINDOW 0 24 104 Left 2
WINDOW 3 24 16 Left 2
SYMATTR InstName VS2
SYMATTR Value 15
SYMBOL res 80 -48 R90
WINDOW 0 0 56 VBottom 2
WINDOW 3 32 56 VTop 2
SYMATTR InstName R1
SYMATTR Value 1k
SYMBOL res 400 -48 R90
WINDOW 0 0 56 VBottom 2
WINDOW 3 32 56 VTop 2
SYMATTR InstName R2
SYMATTR Value 1k
SYMBOL e 272 112 R0
SYMATTR InstName E1
SYMATTR Value 10000
SYMBOL fig-02-03-33-sub 128 144 R0
WINDOW 0 -61 -67 Bottom 2
SYMATTR InstName X1
TEXT 336 256 Left 2 !.IC V(VCP)=0
TEXT 264 352 Left 2 !.tran 100m
