Version 4
SHEET 1 880 692
WIRE 384 -32 384 -48
WIRE 448 -32 448 -48
WIRE 384 16 384 -32
WIRE 448 16 448 -32
WIRE -32 64 -80 64
WIRE 96 64 48 64
WIRE 176 64 96 64
WIRE 288 64 256 64
WIRE -80 96 -80 64
WIRE 384 112 384 96
WIRE 448 112 448 96
WIRE 160 128 160 112
WIRE 160 160 160 128
WIRE 96 176 96 64
WIRE 144 176 96 176
WIRE 288 192 288 64
WIRE 288 192 208 192
WIRE 400 192 288 192
WIRE 464 192 400 192
WIRE -80 208 -80 176
WIRE 48 208 -32 208
WIRE 144 208 48 208
WIRE 48 240 48 208
WIRE 160 256 160 224
WIRE 160 272 160 256
WIRE 192 272 192 224
WIRE 192 272 160 272
WIRE 400 272 400 192
WIRE 160 304 160 272
WIRE 48 352 48 320
WIRE 208 352 112 352
WIRE 304 352 272 352
WIRE 176 384 176 368
WIRE 176 432 176 384
WIRE 304 448 304 352
WIRE 304 448 208 448
WIRE 400 448 400 352
WIRE 400 448 304 448
WIRE -32 464 -32 208
WIRE 0 464 -32 464
WIRE 112 464 112 352
WIRE 112 464 80 464
WIRE 144 464 112 464
WIRE 256 480 208 480
WIRE 256 528 256 480
WIRE 176 544 176 496
WIRE 176 560 176 544
FLAG -80 208 0
FLAG 464 192 VOUT
IOPIN 464 192 Out
FLAG 384 112 0
FLAG 448 112 0
FLAG 384 -32 VEE
FLAG 448 -32 VCC
FLAG 160 128 VCC
FLAG 160 256 VEE
FLAG 48 352 0
FLAG 256 528 0
FLAG 176 384 VCC
FLAG 176 544 VEE
SYMBOL voltage -80 80 R0
WINDOW 3 -87 181 Left 2
WINDOW 123 24 99 Left 2
WINDOW 39 0 0 Left 2
SYMATTR Value ""
SYMATTR Value2 AC 1
SYMATTR InstName V1
SYMBOL res 272 48 R90
WINDOW 0 0 56 VBottom 2
WINDOW 3 32 56 VTop 2
SYMATTR InstName R2
SYMATTR Value 1K
SYMBOL Misc\\battery 448 0 R0
WINDOW 0 9 8 Left 2
WINDOW 3 17 96 Left 2
WINDOW 123 0 0 Left 0
WINDOW 39 0 0 Left 0
SYMATTR InstName VS1
SYMATTR Value 5
SYMBOL Misc\\battery 384 112 R180
WINDOW 0 24 104 Left 2
WINDOW 3 24 16 Left 2
WINDOW 123 0 0 Left 0
WINDOW 39 0 0 Left 0
SYMATTR InstName VS2
SYMATTR Value 5
SYMBOL Opamps\\ADA4857 176 192 R0
SYMATTR InstName U1
SYMBOL res 64 48 R90
WINDOW 0 0 56 VBottom 2
WINDOW 3 32 56 VTop 2
SYMATTR InstName R1
SYMATTR Value 100
SYMBOL res -16 480 R270
WINDOW 0 32 56 VTop 2
WINDOW 3 0 56 VBottom 2
SYMATTR InstName R4
SYMATTR Value 1k
SYMBOL OP2177 176 400 M0
SYMATTR InstName U2
SYMBOL res 384 256 R0
SYMATTR InstName R3
SYMATTR Value 100k
SYMBOL cap 272 336 R90
WINDOW 0 0 32 VBottom 2
WINDOW 3 32 32 VTop 2
SYMATTR InstName C1
SYMATTR Value 10µ
SYMBOL res 64 336 R180
WINDOW 0 36 76 Left 2
WINDOW 3 36 40 Left 2
SYMATTR InstName R5
SYMATTR Value 1k
TEXT -120 -24 Left 2 !.ac dec 200 1m 1g
