Version 4
SHEET 1 880 692
WIRE 384 -32 384 -48
WIRE 448 -32 448 -48
WIRE 384 16 384 -32
WIRE 448 16 448 -32
WIRE -32 64 -64 64
WIRE 96 64 48 64
WIRE 176 64 96 64
WIRE 288 64 256 64
WIRE -64 112 -64 64
WIRE 384 112 384 96
WIRE 448 112 448 96
WIRE 160 128 160 112
WIRE 160 160 160 128
WIRE 96 176 96 64
WIRE 96 176 -16 176
WIRE 144 176 96 176
WIRE 288 192 288 64
WIRE 288 192 208 192
WIRE 400 192 288 192
WIRE 464 192 400 192
WIRE 144 208 32 208
WIRE 400 224 400 192
WIRE 32 240 32 208
WIRE 160 256 160 224
WIRE 160 272 160 256
WIRE 192 272 192 224
WIRE 192 272 160 272
WIRE 160 304 160 272
WIRE 272 320 208 320
WIRE 352 320 336 320
WIRE 32 352 32 320
WIRE 272 368 272 352
WIRE 352 368 352 320
WIRE 432 368 352 368
WIRE 544 368 512 368
WIRE 272 416 272 368
WIRE 352 432 352 368
WIRE 352 432 304 432
WIRE -16 448 -16 176
WIRE 32 448 -16 448
WIRE 208 448 208 320
WIRE 208 448 112 448
WIRE 240 448 208 448
WIRE 400 464 400 304
WIRE 400 464 304 464
WIRE 432 464 400 464
WIRE 544 464 544 368
WIRE 544 464 496 464
WIRE 544 496 544 464
WIRE 272 528 272 480
WIRE 272 544 272 528
FLAG 32 352 0
FLAG 464 192 VOUT
IOPIN 464 192 Out
FLAG 384 112 0
FLAG 448 112 0
FLAG 384 -32 VEE
FLAG 448 -32 VCC
FLAG 160 128 VCC
FLAG 160 256 VEE
FLAG -64 112 0
FLAG 544 496 0
FLAG 272 368 VCC
FLAG 272 528 VEE
SYMBOL voltage 32 224 R0
WINDOW 3 -87 181 Left 2
WINDOW 123 24 99 Left 2
WINDOW 39 0 0 Left 2
SYMATTR Value ""
SYMATTR Value2 AC 1
SYMATTR InstName V1
SYMBOL res 272 48 R90
WINDOW 0 0 56 VBottom 2
WINDOW 3 32 56 VTop 2
SYMATTR InstName R2
SYMATTR Value 900
SYMBOL Misc\\battery 448 0 R0
WINDOW 0 9 8 Left 2
WINDOW 3 17 96 Left 2
WINDOW 123 0 0 Left 0
WINDOW 39 0 0 Left 0
SYMATTR InstName VS1
SYMATTR Value 5
SYMBOL Misc\\battery 384 112 R180
WINDOW 0 24 104 Left 2
WINDOW 3 24 16 Left 2
WINDOW 123 0 0 Left 0
WINDOW 39 0 0 Left 0
SYMATTR InstName VS2
SYMATTR Value 5
SYMBOL Opamps\\ADA4857 176 192 R0
SYMATTR InstName U1
SYMBOL res 64 48 R90
WINDOW 0 0 56 VBottom 2
WINDOW 3 32 56 VTop 2
SYMATTR InstName R1
SYMATTR Value 100
SYMBOL res 16 464 R270
WINDOW 0 32 56 VTop 2
WINDOW 3 0 56 VBottom 2
SYMATTR InstName R5
SYMATTR Value 10k
SYMBOL OP2177 272 384 M0
SYMATTR InstName U2
SYMBOL res 384 208 R0
SYMATTR InstName R3
SYMATTR Value 100k
SYMBOL cap 496 448 R90
WINDOW 0 0 32 VBottom 2
WINDOW 3 32 32 VTop 2
SYMATTR InstName C1
SYMATTR Value 10µ
SYMBOL cap 336 304 R90
WINDOW 0 0 32 VBottom 2
WINDOW 3 32 32 VTop 2
SYMATTR InstName C2
SYMATTR Value 10µ
SYMBOL res 528 352 R90
WINDOW 0 0 56 VBottom 2
WINDOW 3 32 56 VTop 2
SYMATTR InstName R4
SYMATTR Value 100k
TEXT -64 -32 Left 2 !.ac dec 200 1m 1g
