Version 4
SHEET 1 1332 680
WIRE 48 -48 48 -64
WIRE 112 -48 112 -64
WIRE 48 0 48 -48
WIRE 112 0 112 -48
WIRE 416 64 192 64
WIRE 48 96 48 80
WIRE 112 96 112 80
WIRE 256 96 256 80
WIRE 256 128 256 96
WIRE 192 144 192 64
WIRE 240 144 192 144
WIRE 416 160 416 64
WIRE 416 160 304 160
WIRE 448 160 416 160
WIRE 16 176 -16 176
WIRE 128 176 96 176
WIRE 240 176 208 176
WIRE 256 224 256 192
WIRE -16 240 -16 176
WIRE 256 240 256 224
WIRE -16 368 -16 320
FLAG -16 368 0
FLAG 448 160 VOUT
IOPIN 448 160 Out
FLAG 48 96 0
FLAG 112 96 0
FLAG 48 -48 VEE
FLAG 112 -48 VCC
FLAG 256 96 VCC
FLAG 256 224 VEE
SYMBOL Opamps\\LTC6252 272 160 R0
SYMATTR InstName U1
SYMBOL voltage -16 224 R0
WINDOW 0 47 99 Bottom 2
WINDOW 3 242 38 Top 2
WINDOW 123 42 108 Top 2
WINDOW 39 0 0 Left 0
SYMATTR InstName V1
SYMATTR Value PULSE(0 0.01 0.1u 2n 2n 0.1u 0.2u)
SYMBOL Misc\\battery 112 -16 R0
WINDOW 0 17 6 Left 2
WINDOW 3 17 95 Left 2
WINDOW 123 0 0 Left 0
WINDOW 39 0 0 Left 0
SYMATTR InstName VS1
SYMATTR Value 2.5
SYMBOL Misc\\battery 48 96 R180
WINDOW 0 24 104 Left 2
WINDOW 3 24 16 Left 2
SYMATTR InstName VS2
SYMATTR Value 2.5
SYMBOL ind 224 160 R90
WINDOW 0 5 56 VBottom 2
WINDOW 3 32 56 VTop 2
SYMATTR InstName L1
SYMATTR Value {LIN}
SYMBOL res 112 160 R90
WINDOW 0 0 56 VBottom 2
WINDOW 3 32 56 VTop 2
SYMATTR InstName R1
SYMATTR Value 50
TEXT 72 328 Left 2 !.tran 0 1u 0.4u
TEXT 72 360 Left 2 !.step param LIN LIST 1n 80n 100n
