Version 4
SHEET 1 1332 680
WIRE 80 64 32 64
WIRE 192 64 160 64
WIRE 288 64 192 64
WIRE 416 64 368 64
WIRE 256 96 256 80
WIRE 256 128 256 96
WIRE 32 144 32 64
WIRE 80 144 32 144
WIRE 192 144 192 64
WIRE 192 144 144 144
WIRE 240 144 192 144
WIRE 416 160 416 64
WIRE 416 160 304 160
WIRE 448 160 416 160
WIRE 32 176 32 144
WIRE 240 176 160 176
WIRE 256 224 256 192
WIRE 160 240 160 176
WIRE 256 240 256 224
WIRE -16 256 -16 240
WIRE 48 256 48 240
WIRE -16 304 -16 256
WIRE 48 304 48 256
WIRE 160 368 160 320
WIRE -16 400 -16 384
WIRE 48 400 48 384
FLAG 160 368 0
FLAG 448 160 VOUT
IOPIN 448 160 Out
FLAG 32 176 0
FLAG -16 400 0
FLAG 48 400 0
FLAG -16 256 VEE
FLAG 48 256 VCC
FLAG 256 96 VCC
FLAG 256 224 VEE
SYMBOL Opamps\\LTC6252 272 160 R0
SYMATTR InstName U1
SYMBOL res 384 48 R90
WINDOW 0 0 56 VBottom 2
WINDOW 3 32 56 VTop 2
SYMATTR InstName R2
SYMATTR Value 500
SYMBOL res 176 48 R90
WINDOW 0 0 56 VBottom 2
WINDOW 3 32 56 VTop 2
SYMATTR InstName R1
SYMATTR Value 500
SYMBOL cap 144 128 R90
WINDOW 0 0 32 VBottom 2
WINDOW 3 32 32 VTop 2
SYMATTR InstName C1
SYMATTR Value {CIN}
SYMBOL voltage 160 224 R0
WINDOW 0 47 99 Bottom 2
WINDOW 3 242 38 Top 2
WINDOW 123 42 108 Top 2
WINDOW 39 0 0 Left 0
SYMATTR InstName V1
SYMATTR Value PULSE(-0.01 0.01 0.1u 2n 2n 0.25u 0.5u)
SYMBOL Misc\\battery 48 288 R0
WINDOW 0 17 6 Left 2
WINDOW 3 17 95 Left 2
WINDOW 123 0 0 Left 0
WINDOW 39 0 0 Left 0
SYMATTR InstName VS1
SYMATTR Value 2.5
SYMBOL Misc\\battery -16 400 R180
WINDOW 0 24 104 Left 2
WINDOW 3 24 16 Left 2
SYMATTR InstName VS2
SYMATTR Value 2.5
TEXT 256 320 Left 2 !.tran 0 2u 1u
TEXT 256 352 Left 2 !.step param CIN LIST 0 3p 6p
