Version 4
SHEET 1 1284 680
WIRE 352 -16 208 -16
WIRE 544 -16 416 -16
WIRE 768 -16 544 -16
WIRE 96 80 48 80
WIRE 208 80 208 -16
WIRE 208 80 176 80
WIRE 336 80 208 80
WIRE 544 80 544 -16
WIRE 544 80 416 80
WIRE 48 96 48 80
WIRE 256 112 256 96
WIRE 656 112 624 112
WIRE 768 112 768 -16
WIRE 768 112 736 112
WIRE 256 144 256 112
WIRE 208 160 208 80
WIRE 240 160 208 160
WIRE 624 160 624 112
WIRE 416 176 304 176
WIRE 496 176 416 176
WIRE 576 176 496 176
WIRE 240 192 160 192
WIRE 496 208 496 176
WIRE 416 224 416 176
WIRE 576 224 560 224
WIRE 160 240 160 192
WIRE 256 256 256 208
WIRE 256 272 256 256
WIRE 560 272 560 224
WIRE 624 272 624 240
WIRE 624 272 560 272
WIRE 144 320 144 304
WIRE 208 320 208 304
WIRE 416 320 416 288
WIRE 496 320 496 288
WIRE 624 320 624 272
WIRE 144 368 144 320
WIRE 208 368 208 320
WIRE 144 464 144 448
WIRE 208 464 208 448
FLAG 160 240 0
FLAG 144 464 0
FLAG 208 464 0
FLAG 144 320 VEE
FLAG 208 320 VCC
FLAG 416 320 0
FLAG 48 96 0
FLAG 256 112 VCC
FLAG 256 256 VEE
FLAG 624 112 VOUT
FLAG 768 112 VRTN
FLAG 496 320 0
FLAG 624 320 0
SYMBOL Misc\\battery 208 352 R0
WINDOW 0 13 6 Left 2
WINDOW 3 18 96 Left 2
WINDOW 123 0 0 Left 0
WINDOW 39 0 0 Left 0
SYMATTR InstName VS1
SYMATTR Value 2.5
SYMBOL Misc\\battery 144 464 R180
WINDOW 0 24 104 Left 2
WINDOW 3 24 16 Left 2
WINDOW 123 0 0 Left 0
WINDOW 39 0 0 Left 0
SYMATTR InstName VS2
SYMATTR Value 2.5
SYMBOL voltage 752 112 R90
WINDOW 3 -107 200 Left 2
WINDOW 123 -46 43 VLeft 2
WINDOW 39 0 0 Left 0
WINDOW 0 -47 94 VLeft 2
SYMATTR Value ""
SYMATTR Value2 AC 1
SYMATTR InstName V1
SYMBOL cap 400 224 R0
SYMATTR InstName CL
SYMATTR Value 100p
SYMBOL res 432 64 R90
WINDOW 0 0 56 VBottom 2
WINDOW 3 32 56 VTop 2
SYMATTR InstName R2
SYMATTR Value 9k
SYMBOL res 192 64 R90
WINDOW 0 0 56 VBottom 2
WINDOW 3 32 56 VTop 2
SYMATTR InstName R1
SYMATTR Value 1k
SYMBOL Opamps\\LTC6252 272 176 R0
WINDOW 3 15 55 Left 2
SYMATTR InstName U2
SYMBOL cap 416 -32 R90
WINDOW 0 0 32 VBottom 2
WINDOW 3 32 32 VTop 2
SYMATTR InstName CC
SYMATTR Value {CVAL}
SYMBOL res 480 192 R0
SYMATTR InstName R3
SYMATTR Value 10k
SYMBOL e 624 144 R0
SYMATTR InstName E1
SYMATTR Value 1
TEXT 312 368 Left 2 !.ac dec 1000 100k 1g
TEXT 304 408 Left 2 !.step param CVAL list 0  0.25p 0.5p 1p 2p
