Version 4
SHEET 1 1172 680
WIRE 272 -16 208 -16
WIRE 416 -16 336 -16
WIRE 96 80 48 80
WIRE 208 80 208 -16
WIRE 208 80 176 80
WIRE 272 80 208 80
WIRE 416 80 416 -16
WIRE 416 80 352 80
WIRE 48 96 48 80
WIRE 256 112 256 96
WIRE 256 144 256 112
WIRE 208 160 208 80
WIRE 240 160 208 160
WIRE 416 176 416 80
WIRE 416 176 304 176
WIRE 448 176 416 176
WIRE 240 192 48 192
WIRE 416 224 416 176
WIRE 48 240 48 192
WIRE 256 256 256 208
WIRE 256 272 256 256
WIRE 416 320 416 288
WIRE 480 352 480 336
WIRE 544 352 544 336
WIRE 48 384 48 320
WIRE 480 400 480 352
WIRE 544 400 544 352
WIRE 480 496 480 480
WIRE 544 496 544 480
FLAG 48 384 0
FLAG 448 176 VOUT
IOPIN 448 176 Out
FLAG 480 496 0
FLAG 544 496 0
FLAG 480 352 VEE
FLAG 544 352 VCC
FLAG 416 320 0
FLAG 48 96 0
FLAG 256 112 VCC
FLAG 256 256 VEE
SYMBOL Misc\\battery 544 384 R0
WINDOW 0 13 6 Left 2
WINDOW 3 18 96 Left 2
WINDOW 123 0 0 Left 0
WINDOW 39 0 0 Left 0
SYMATTR InstName VS1
SYMATTR Value 2.5
SYMBOL Misc\\battery 480 496 R180
WINDOW 0 24 104 Left 2
WINDOW 3 24 16 Left 2
WINDOW 123 0 0 Left 0
WINDOW 39 0 0 Left 0
SYMATTR InstName VS2
SYMATTR Value 2.5
SYMBOL voltage 48 224 R0
WINDOW 3 -107 200 Left 2
WINDOW 123 0 0 Left 0
WINDOW 39 0 0 Left 0
SYMATTR Value PULSE(-0.05 0.05 0 10n 10n 0.5u 1u)
SYMATTR InstName V1
SYMBOL cap 400 224 R0
SYMATTR InstName CL
SYMATTR Value 100p
SYMBOL res 368 64 R90
WINDOW 0 0 56 VBottom 2
WINDOW 3 32 56 VTop 2
SYMATTR InstName R2
SYMATTR Value 9k
SYMBOL res 192 64 R90
WINDOW 0 0 56 VBottom 2
WINDOW 3 32 56 VTop 2
SYMATTR InstName R1
SYMATTR Value 1k
SYMBOL Opamps\\LTC6252 272 176 R0
SYMATTR InstName U2
SYMBOL cap 336 -32 R90
WINDOW 0 0 32 VBottom 2
WINDOW 3 32 32 VTop 2
SYMATTR InstName CC
SYMATTR Value {CVAL}
TEXT -112 -8 Left 2 !.tran 2u
TEXT -152 24 Left 2 !.step param CVAL LIST 0p 1p
