Version 4
SHEET 1 1012 804
WIRE -192 176 -256 176
WIRE -80 176 -112 176
WIRE -32 176 -80 176
WIRE 272 176 224 176
WIRE -256 224 -256 176
WIRE 432 320 432 272
WIRE -336 368 -336 320
WIRE -256 368 -256 304
WIRE 432 464 432 400
WIRE -336 512 -336 448
FLAG 272 176 VOUT
IOPIN 272 176 Out
FLAG -336 512 0
FLAG -336 320 RANDSIG
FLAG -256 368 0
FLAG 432 464 0
FLAG 432 272 DELAYEYE
FLAG -80 176 VIN
SYMBOL Misc\\battery -208 176 R270
WINDOW 0 49 76 VRight 2
WINDOW 3 -30 73 VRight 2
WINDOW 123 0 0 Left 2
WINDOW 39 0 0 Left 2
SYMATTR InstName V1
SYMATTR Value 0.5
SYMBOL bv -336 352 R0
SYMATTR InstName B1
SYMATTR Value V=rand(2e3*time)
SYMBOL bv -256 208 R0
SYMATTR InstName B2
SYMATTR Value V=buf(V(RANDSIG))
SYMBOL bv 432 304 R0
SYMATTR InstName B3
SYMATTR Value V=delay(V(VOUT), 307E-6)
SYMBOL fig-02-07-21-sub 64 176 R0
SYMATTR InstName X1
TEXT 0 376 Left 2 !.tran 0 50m 0 0.1u
TEXT 0 432 Left 2 !.OPTIONS plotwinsize=0\n.OPTIONS baudrate=2e3
TEXT 0 488 Left 2 !.OPTION cshunt=1e-15
