Version 4
SHEET 1 1012 804
WIRE -176 176 -208 176
WIRE -32 176 -176 176
WIRE 272 176 224 176
WIRE -208 224 -208 176
WIRE -208 368 -208 304
FLAG -208 368 0
FLAG 272 176 VOUT
IOPIN 272 176 Out
FLAG -176 176 VIN
SYMBOL voltage -208 208 R0
WINDOW 123 24 124 Left 2
WINDOW 39 0 0 Left 2
WINDOW 3 22 109 Left 2
SYMATTR Value PULSE(0 1 0 10u 10u 5m 10m)
SYMATTR InstName V1
SYMBOL fig-02-07-15-sub 64 176 R0
SYMATTR InstName X1
TEXT -240 128 Left 2 !.tran 0 20m 0 1u
